T44/data_conversion/PT/PT_Tx_2040_Slow/Transmission_Network_PT_2040_Slow_Progression.m
function mpc = Transmission_Network_PT_2040_Slow_Progression

%% MATPOWER Case Format : Version 2
mpc.version = '2';

%%-----  Power Flow Data  -----%%
%% system MVA base
mpc.baseMVA = 100;

%% bus data
%	bus_i	type	Pd	Qd	Gs	Bs	area	Vm	Va	baseKV	zone	Vmax	Vmin
mpc.bus = [
	1	2	0.000	0.000	0	0	1	1.0483	15.69	400	1	1.05	0.95	;
	2	2	0.000	0.000	0	0	1	1.0485	18.2	400	1	1.05	0.95	;
	3	2	0.000	0.000	0	0	1	1.0431	6.66	400	1	1.05	0.95	;
	4	2	0.000	0.000	0	0	1	1.0369	0.09	400	1	1.05	0.95	;
	5	2	0.000	0.000	0	0	1	1.0484	17.87	220	1	1.05	0.95	;
	6	2	0.000	0.000	0	0	1	1.0479	17.81	220	1	1.05	0.95	;
	7	2	0.000	0.000	0	0	1	1.0338	-5.38	400	1	1.05	0.95	;
	305	2	0.000	0.000	0	0	1	1.046	13.52	400	1	1.05	0.95	;
	8	1	0.000	0.000	0	0	1	1.009	-0.38	150	2	1.05	0.95	;
	9	1	0.000	0.000	0	0	1	1.0326	-6.01	150	2	1.05	0.95	;
	10	2	0.000	0.000	0	0	1	1.0373	-5.44	150	2	1.05	0.95	;
	11	1	4.478	-0.336	0	0	1	1.0223	-7.3	150	2	1.05	0.95	;
	12	1	0.000	0.000	0	0	1	1.0182	-9.23	150	2	1.05	0.95	;
	13	1	6.717	2.351	0	0	1	1.0301	-6.41	150	2	1.05	0.95	;
	14	2	0.000	0.000	0	0	1	1.0337	-5.85	150	2	1.05	0.95	;
	15	1	0.000	0.000	0	0	1	1.0395	-5.07	150	2	1.05	0.95	;
	16	1	0.000	0.000	0	0	1	1.0242	12.66	150	2	1.05	0.95	;
	17	1	0.000	0.000	0	0	1	1.0283	12.11	150	2	1.05	0.95	;
	18	1	7.836	-1.008	0	0	1	1.0264	11.74	150	2	1.05	0.95	;
	19	1	0.000	0.000	0	0	1	1.0217	-7.71	150	2	1.05	0.95	;
	20	1	0.000	0.000	0	0	1	1.0272	-6.78	150	2	1.05	0.95	;
	21	1	0.000	0.000	0	0	1	1.0283	11.88	150	2	1.05	0.95	;
	22	2	0.000	0.000	0	0	1	1.0302	-7.12	150	2	1.05	0.95	;
	23	1	0.000	0.000	0	0	1	1.0136	-9.8	150	2	1.05	0.95	;
	24	2	0.000	0.000	0	0	1	1.0235	8.26	150	2	1.05	0.95	;
	25	1	0.000	0.000	0	0	1	1.0221	11.78	150	2	1.05	0.95	;
	26	1	4.478	0.112	0	0	1	1.0385	-5.34	150	2	1.05	0.95	;
	27	1	3.358	-0.224	0	0	1	1.0372	-5.6	150	2	1.05	0.95	;
	28	1	2.239	-0.224	0	0	1	1.0318	-7.13	150	2	1.05	0.95	;
	29	2	0.000	0.000	0	0	1	1.0263	-8.22	150	2	1.05	0.95	;
	30	2	0.000	0.000	0	0	1	1.0374	13.78	150	2	1.05	0.95	;
	31	1	0.000	0.000	0	0	1	1.0195	8.36	150	2	1.05	0.95	;
	32	1	0.000	0.000	0	0	1	1.0314	12.83	150	2	1.05	0.95	;
	33	1	0.000	0.000	0	0	1	1.041	15.22	150	2	1.05	0.95	;
	34	2	0.000	0.000	0	-75	1	1.0318	-7.55	150	2	1.05	0.95	;
	36	1	0.000	0.000	0	0	1	1.0221	-0.26	220	2	1.05	0.95	;
	37	1	0.000	0.000	0	0	1	1.026	-3.84	220	2	1.05	0.95	;
	38	1	0.000	0.000	0	0	1	1.0241	8.14	220	2	1.05	0.95	;
	39	1	0.000	0.000	0	0	1	1.0269	3.4	220	2	1.05	0.95	;
	40	1	0.000	0.000	0	0	1	1.0469	16.58	220	2	1.05	0.95	;
	41	1	0.000	0.000	0	0	1	1.0243	8.19	220	2	1.05	0.95	;
	42	1	0.000	0.000	0	0	1	1.0296	6.88	220	2	1.05	0.95	;
	43	1	0.000	0.000	0	0	1	1.0241	-4.18	220	2	1.05	0.95	;
	44	1	0.000	0.000	0	0	1	1.0227	7.55	220	2	1.05	0.95	;
	45	1	0.000	0.000	0	0	1	1.0272	-0.82	220	2	1.05	0.95	;
	46	1	0.000	0.000	0	0	1	1.0259	-2.45	220	2	1.05	0.95	;
	47	1	0.000	0.000	0	0	1	1.0317	9.93	220	2	1.05	0.95	;
	48	1	44.780	8.956	0	0	1	1.0253	6.32	220	2	1.05	0.95	;
	49	1	0.000	0.000	0	0	1	1.0211	7.96	220	2	1.05	0.95	;
	50	1	0.000	0.000	0	100	1	1.0261	-3.59	220	2	1.05	0.95	;
	51	1	0.000	0.000	0	0	1	1.0388	14.28	220	2	1.05	0.95	;
	52	1	0.000	0.000	0	0	1	1.0264	1.71	220	2	1.05	0.95	;
	53	1	0.000	0.000	0	0	1	1.0233	7.99	220	2	1.05	0.95	;
	54	1	0.000	0.000	0	0	1	1.0471	25.66	220	2	1.05	0.95	;
	55	1	0.000	0.000	0	0	1	1.0236	-4.3	220	2	1.05	0.95	;
	56	1	0.000	0.000	0	100	1	1.0252	-4.63	220	2	1.05	0.95	;
	57	1	0.000	0.000	0	0	1	1.0249	8.54	220	2	1.05	0.95	;
	58	1	0.000	0.000	0	0	1	1.0233	-4.38	220	2	1.05	0.95	;
	59	1	0.000	0.000	0	0	1	1.026	-3.98	220	2	1.05	0.95	;
	60	1	0.000	0.000	0	0	1	1.0327	9.93	220	2	1.05	0.95	;
	61	2	0.000	0.000	0	0	1	1.0322	10.05	220	2	1.05	0.95	;
	62	1	0.000	0.000	0	0	1	1.0323	9.22	220	2	1.05	0.95	;
	63	1	0.000	0.000	0	0	1	1.0437	23.28	220	2	1.05	0.95	;
	64	2	0.000	0.000	0	0	1	1.0221	-2.11	220	2	1.05	0.95	;
	65	2	0.000	0.000	0	0	1	1.0361	9.85	220	2	1.05	0.95	;
	66	1	0.000	0.000	0	0	1	1.034	10.51	220	2	1.05	0.95	;
	67	1	2.239	-0.224	0	0	1	1.0269	8.86	220	2	1.05	0.95	;
	68	1	0.000	0.000	0	0	1	1.0231	8.01	220	2	1.05	0.95	;
	69	1	0.000	0.000	0	0	1	1.0277	5.94	220	2	1.05	0.95	;
	71	1	0.000	0.000	0	0	1	1.0269	2.66	220	2	1.05	0.95	;
	72	1	0.000	0.000	0	-70	1	1.025	8.82	220	2	1.05	0.95	;
	73	2	0.000	0.000	0	0	1	1.0305	18.69	220	2	1.05	0.95	;
	74	1	0.000	0.000	0	0	1	1.0249	-2.77	220	2	1.05	0.95	;
	75	1	0.000	0.000	0	0	1	1.0336	12.49	220	2	1.05	0.95	;
	76	1	0.000	0.000	0	0	1	1.0232	-4.32	220	2	1.05	0.95	;
	77	1	0.000	0.000	0	0	1	1.0356	21.58	220	2	1.05	0.95	;
	78	1	0.000	0.000	0	-70	1	1.0266	4.76	220	2	1.05	0.95	;
	79	1	0.000	0.000	0	0	1	1.031	14.65	220	2	1.05	0.95	;
	80	1	0.000	0.000	0	0	1	1.0409	-2.81	400	2	1.05	0.95	;
	81	1	0.000	0.000	0	0	1	1.0368	10.91	400	2	1.05	0.95	;
	82	1	0.000	0.000	0	0	1	1.0423	-1.08	400	2	1.05	0.95	;
	83	1	0.000	0.000	0	0	1	1.0441	4.86	400	2	1.05	0.95	;
	84	1	0.000	0.000	0	0	1	1.0409	-3.01	400	2	1.05	0.95	;
	85	1	0.000	0.000	0	-150	1	1.0406	2.63	400	2	1.05	0.95	;
	86	1	0.000	0.000	0	0	1	1.041	-3.31	400	2	1.05	0.95	;
	87	1	0.000	0.000	0	0	1	1.0401	-3.71	400	2	1.05	0.95	;
	88	1	0.000	0.000	0	0	1	1.0406	12.43	400	2	1.05	0.95	;
	89	1	0.000	0.000	0	-150	1	1.0432	-1.23	400	2	1.05	0.95	;
	90	1	0.000	0.000	0	-150	1	1.0465	13.18	400	2	1.05	0.95	;
	91	1	0.000	0.000	0	0	1	1.044	13.3	400	2	1.05	0.95	;
	92	1	0.000	0.000	0	-150	1	1.0387	12.44	400	2	1.05	0.95	;
	93	1	0.000	0.000	0	0	1	1.039	11.55	400	2	1.05	0.95	;
	94	1	0.000	0.000	0	0	1	1.0388	11.34	400	2	1.05	0.95	;
	95	1	0.000	0.000	0	0	1	1.0476	8.31	400	2	1.05	0.95	;
	96	1	0.000	0.000	0	0	1	1.0474	14.62	400	2	1.05	0.95	;
	97	2	0.000	0.000	0	0	1	1.0414	-2.94	400	2	1.05	0.95	;
	98	1	0.000	0.000	0	0	1	1.0469	6.59	400	2	1.05	0.95	;
	99	1	0.000	0.000	0	0	1	1.0482	6.07	400	2	1.05	0.95	;
	100	1	0.000	0.000	0	0	1	1.0445	-0.01	400	2	1.05	0.95	;
	101	1	0.000	0.000	0	-150	1	1.0412	9.26	400	2	1.05	0.95	;
	102	1	0.000	0.000	0	-150	1	1.0231	-5.3	400	2	1.05	0.95	;
	103	1	0.000	0.000	0	0	1	1.0457	11.16	400	2	1.05	0.95	;
	104	1	0.000	0.000	0	-150	1	1.0417	13.13	400	2	1.05	0.95	;
	105	1	0.000	0.000	0	0	1	1.0423	-0.14	400	2	1.05	0.95	;
	106	1	0.000	0.000	0	0	1	1.0493	18.16	400	2	1.05	0.95	;
	107	2	0.000	0.000	0	0	1	1.0286	-5.35	400	2	1.05	0.95	;
	108	2	51.609	14.553	0	0	1	1.0098	10.16	130	2	1.05	0.95	;
	109	2	265.320	38.623	0	0	1	1.0207	-3.31	63	2	1.05	0.95	;
	110	2	207.554	11.755	0	0	1	1.028	-7.12	63	2	1.05	0.95	;
	111	2	198.934	23.845	0	0	1	1.026	4.55	63	2	1.05	0.95	;
	112	2	251.774	35.040	0	0	1	1.0269	-7.61	63	2	1.05	0.95	;
	113	2	137.138	19.703	0	0	1	1.0281	-8.17	63	2	1.05	0.95	;
	114	2	238.340	32.465	0	0	1	1.0325	-0.23	63	2	1.05	0.95	;
	115	2	37.951	7.053	0	0	1	1.0183	16.61	63	2	1.05	0.95	;
	116	2	301.479	59.893	0	0	1	1.0198	6.3	63	2	1.05	0.95	;
	117	2	76.349	9.292	0	0	1	1.0163	-9.34	63	2	1.05	0.95	;
	118	2	110.382	27.987	0	0	1	1.0235	6.1	63	2	1.05	0.95	;
	119	2	317.152	54.967	0	0	1	1.0379	-5.67	63	2	1.05	0.95	;
	120	2	275.171	51.273	0	0	1	1.027	4.38	63	2	1.05	0.95	;
	121	2	162.326	30.786	0	0	1	1.0203	-11.45	63	2	1.05	0.95	;
	122	2	269.686	54.519	0	0	1	1.0352	0.78	63	2	1.05	0.95	;
	123	2	232.966	9.852	0	0	1	1.0327	-9.04	63	2	1.05	0.95	;
	124	2	166.245	43.548	0	0	1	1.0279	-2.23	63	2	1.05	0.95	;
	125	2	152.363	13.434	0	0	1	1.0237	-5.39	63	2	1.05	0.95	;
	126	2	124.600	16.457	0	0	1	1.0319	-6.11	63	2	1.05	0.95	;
	127	2	152.027	28.435	0	0	1	1.0306	7.79	63	2	1.05	0.95	;
	128	2	323.421	72.543	0	0	1	1.0311	9.65	63	2	1.05	0.95	;
	129	2	229.832	32.353	0	0	1	1.0273	4.24	63	2	1.05	0.95	;
	130	2	343.572	68.401	0	0	1	1.0166	4.83	63	2	1.05	0.95	;
	131	2	190.874	31.010	0	0	1	1.0288	-3.5	63	2	1.05	0.95	;
	132	2	68.177	13.322	0	0	1	1.0124	3.16	63	2	1.05	0.95	;
	133	2	236.661	56.422	0	0	1	1.0287	9.35	63	2	1.05	0.95	;
	134	2	223.115	37.391	0	0	1	1.0251	6	63	2	1.05	0.95	;
	135	2	224.011	23.174	0	0	1	1.0271	-7	63	2	1.05	0.95	;
	136	2	291.292	34.480	0	0	1	1.0321	-9.17	63	2	1.05	0.95	;
	137	2	164.342	41.533	0	0	1	1.0286	8.92	63	2	1.05	0.95	;
	138	2	175.648	32.017	0	0	1	1.0236	7.05	63	2	1.05	0.95	;
	139	2	215.502	24.293	0	0	1	1.0263	-7.72	63	2	1.05	0.95	;
	140	2	57.990	9.963	0	0	1	1.0186	-10.32	63	2	1.05	0.95	;
	141	2	121.913	10.299	0	0	1	1.0248	-9.71	63	2	1.05	0.95	;
	142	2	178.335	30.562	0	0	1	1.0277	7.85	63	2	1.05	0.95	;
	143	1	106.912	11.307	0	0	1	1.0218	-7.18	63	2	1.05	0.95	;
	144	2	87.320	9.292	0	0	1	1.0266	7.72	63	2	1.05	0.95	;
	145	2	227.257	44.892	0	0	1	1.0279	7.89	63	2	1.05	0.95	;
	146	2	21.270	3.247	0	0	1	1.0199	-7.7	63	2	1.05	0.95	;
	147	2	81.835	11.307	0	0	1	1.0259	-4.99	63	2	1.05	0.95	;
	148	1	0.000	0.000	0	0	1	1.0081	13.53	63	2	1.05	0.95	;
	149	2	211.024	36.384	0	0	1	1.0233	-13.36	63	2	1.05	0.95	;
	150	2	53.064	11.307	0	0	1	1.0154	8.73	63	2	1.05	0.95	;
	151	2	259.386	65.490	0	0	1	1.0237	7.69	63	2	1.05	0.95	;
	152	2	89.447	21.606	0	0	1	1.0208	8.26	63	2	1.05	0.95	;
	153	2	13.546	3.470	0	0	1	1.0278	22.65	63	2	1.05	0.95	;
	154	2	108.703	10.971	0	0	1	1.0213	-4.79	63	2	1.05	0.95	;
	155	2	66.946	16.904	0	0	1	1.0327	8.91	63	2	1.05	0.95	;
	156	2	36.719	7.389	0	0	1	1.0282	9.84	63	2	1.05	0.95	;
	157	2	151.132	24.293	0	0	1	1.0208	3.94	63	2	1.05	0.95	;
	158	2	109.374	20.487	0	0	1	1.0282	6.65	63	2	1.05	0.95	;
	159	2	118.554	19.703	0	0	1	1.032	-10.95	63	2	1.05	0.95	;
	160	2	123.368	14.553	0	0	1	1.0358	9.18	63	2	1.05	0.95	;
	161	2	20.039	5.709	0	0	1	1.0243	2.31	63	2	1.05	0.95	;
	162	2	77.469	13.770	0	0	1	1.0159	7.09	63	2	1.05	0.95	;
	163	2	15.225	10.299	0	0	1	1.0279	15.08	63	2	1.05	0.95	;
	164	2	47.466	5.709	0	0	1	1.0264	-1.18	63	2	1.05	0.95	;
	165	2	58.661	14.441	0	0	1	1.0078	17.16	63	2	1.05	0.95	;
	166	2	151.132	20.935	0	0	1	1.0289	-6.38	63	2	1.05	0.95	;
	167	2	43.772	8.060	0	0	1	1.0087	12.17	63	2	1.05	0.95	;
	168	2	168.148	29.890	0	0	1	1.0281	-5.32	63	2	1.05	0.95	;
	169	2	21.942	13.098	0	0	1	1.0271	-8.02	63	2	1.05	0.95	;
	170	2	43.996	12.538	0	0	1	1.022	3.7	63	2	1.05	0.95	;
	171	2	75.790	8.508	0	0	1	1.0259	2.73	63	2	1.05	0.95	;
	172	2	46.235	8.508	0	0	1	1.0075	13.81	63	2	1.05	0.95	;
	173	2	0.000	0.000	0	0	1	1.0418	15.42	150	2	1.05	0.95	;
	174	2	0.000	0.000	0	0	1	1.0405	14.91	150	2	1.05	0.95	;
	175	2	0.000	0.000	0	0	1	1.0123	0.01	150	2	1.05	0.95	;
	176	2	0.000	0.000	0	0	1	1.0123	0.01	150	2	1.05	0.95	;
	177	2	0.000	0.000	0	0	1	1.0435	15.7	150	2	1.05	0.95	;
	178	2	0.000	0.000	0	0	1	1.0294	13.78	150	2	1.05	0.95	;
	179	2	0.000	0.000	0	0	1	1.0402	14.21	150	2	1.05	0.95	;
	180	1	0.000	0.000	0	0	1	1.0319	-6.17	150	2	1.05	0.95	;
	181	2	0.000	0.000	0	0	1	1.0284	9.25	150	2	1.05	0.95	;
	182	2	0.000	0.000	0	0	1	1.0415	15.37	150	2	1.05	0.95	;
	184	1	0.000	0.000	0	0	1	1.0372	13.65	150	2	1.05	0.95	;
	185	1	0.000	0.000	0	0	1	1.0357	-5.73	150	2	1.05	0.95	;
	186	1	0.000	0.000	0	0	1	1.0287	-6.92	150	2	1.05	0.95	;
	187	2	0.000	0.000	0	0	1	1.0222	-0.24	220	2	1.05	0.95	;
	188	2	0.000	0.000	0	0	1	1.0221	-0.26	220	2	1.05	0.95	;
	189	2	0.000	0.000	0	0	1	1.0221	-0.26	220	2	1.05	0.95	;
	190	1	0.000	0.000	0	0	1	1.0213	7.93	220	2	1.05	0.95	;
	191	2	0.000	0.000	0	0	1	1.049	26.89	220	2	1.05	0.95	;
	192	2	0.000	0.000	0	0	1	1.0441	24.08	220	2	1.05	0.95	;
	193	1	0.000	0.000	0	0	1	1.0224	8.07	220	2	1.05	0.95	;
	194	2	0.000	0.000	0	0	1	1.0439	16.49	220	2	1.05	0.95	;
	195	2	0.000	0.000	0	0	1	1.0306	4.15	220	2	1.05	0.95	;
	196	2	0.000	0.000	0	0	1	1.0473	16.66	220	2	1.05	0.95	;
	198	2	0.000	0.000	0	0	1	1.0484	17.83	220	2	1.05	0.95	;
	199	1	0.000	0.000	0	0	1	1.0266	1.66	220	2	1.05	0.95	;
	200	2	0.000	0.000	0	0	1	1.0471	25.67	220	2	1.05	0.95	;
	201	2	0.000	0.000	0	0	1	1.0471	25.67	220	2	1.05	0.95	;
	202	2	0.000	0.000	0	0	1	1.0471	25.67	220	2	1.05	0.95	;
	203	2	0.000	0.000	0	0	1	1.0472	25.7	220	2	1.05	0.95	;
...
];

%% generator data
%	bus	Pg	Qg	Qmax	Qmin	Vg	mBase	status	Pmax	Pmin	Pc1	Pc2	Qc1min	Qc1max	Qc2min	Qc2max	ramp_agc	ramp_10	ramp_30	ramp_q	apf
mpc.gen = [
	1	427.160	-47.516	9999.000	-9999.000	1.0483	100.00	1	9999.000	-9999.000	0	0	0	0	0	0	0	0	0	0	0	;
	2	50.843	-69.852	9999.000	-9999.000	1.0485	100.00	1	9999.000	-9999.000	0	0	0	0	0	0	0	0	0	0	0	;
	3	15.540	-80.919	9999.000	-9999.000	1.0431	100.00	1	9999.000	-9999.000	0	0	0	0	0	0	0	0	0	0	0	;
	4	23.871	-63.298	9999.000	-9999.000	1.0369	100.00	1	9999.000	-9999.000	0	0	0	0	0	0	0	0	0	0	0	;
	5	134.237	-19.243	9999.000	-9999.000	1.0484	100.00	1	9999.000	-9999.000	0	0	0	0	0	0	0	0	0	0	0	;
	6	86.417	-12.758	9999.000	-9999.000	1.0479	100.00	1	9999.000	-9999.000	0	0	0	0	0	0	0	0	0	0	0	;
	7	0.000	28.372	9999.000	-9999.000	1.0338	100.00	1	9999.000	-9999.000	0	0	0	0	0	0	0	0	0	0	0	;
	305	130.247	-9.136	9999.000	-9999.000	1.0460	100.00	1	9999.000	-9999.000	0	0	0	0	0	0	0	0	0	0	0	;
	10	0.000	0.000	49.614	-49.614	1.0373	133.59	0	124.035	0.000	0	0	0	0	0	0	0	0	0	0	0	;
	14	0.000	0.000	57.159	-57.159	1.0337	153.90	0	142.897	0.000	0	0	0	0	0	0	0	0	0	0	0	;
	22	0.000	0.000	35.979	-35.979	1.0302	96.88	0	89.946	0.000	0	0	0	0	0	0	0	0	0	0	0	;
	22	0.000	0.000	48.466	-48.466	1.0302	130.50	0	121.164	0.000	0	0	0	0	0	0	0	0	0	0	0	;
	24	0.000	0.000	57.159	-57.159	1.0235	153.90	0	142.897	0.000	0	0	0	0	0	0	0	0	0	0	0	;
	29	0.000	0.000	37.211	-37.211	1.0263	100.19	0	93.026	0.000	0	0	0	0	0	0	0	0	0	0	0	;
	30	31.000	3.773	15.500	-12.400	1.0374	34.66	1	31.000	15.500	0	0	0	0	0	0	0	0	0	0	0	;
	30	0.000	0.000	15.500	-12.400	1.0374	34.66	0	31.000	15.500	0	0	0	0	0	0	0	0	0	0	0	;
	34	0.000	0.000	62.018	-62.018	1.0318	166.99	0	155.044	0.000	0	0	0	0	0	0	0	0	0	0	0	;
	61	59.000	4.462	30.000	-24.000	1.0322	67.08	1	60.000	30.000	0	0	0	0	0	0	0	0	0	0	0	;
	61	58.000	4.462	30.000	-24.000	1.0322	67.08	1	60.000	30.000	0	0	0	0	0	0	0	0	0	0	0	;
	61	0.000	0.000	30.000	-24.000	1.0322	67.08	0	60.000	30.000	0	0	0	0	0	0	0	0	0	0	0	;
	64	0.000	0.000	39.582	-39.582	1.0221	106.58	0	98.956	0.000	0	0	0	0	0	0	0	0	0	0	0	;
	65	1.724	6.320	19.899	-19.899	1.0361	53.58	1	49.747	0.000	0	0	0	0	0	0	0	0	0	0	0	;
	73	2.832	7.715	32.698	-32.698	1.0305	88.04	1	81.746	0.000	0	0	0	0	0	0	0	0	0	0	0	;
	97	0.000	0.000	57.159	-57.159	1.0414	153.90	0	142.897	0.000	0	0	0	0	0	0	0	0	0	0	0	;
	107	0.000	0.000	99.228	-99.228	1.0286	267.18	0	248.070	0.000	0	0	0	0	0	0	0	0	0	0	0	;
	108	0.814	2.083	9.396	-9.396	1.0098	25.30	1	23.491	0.000	0	0	0	0	0	0	0	0	0	0	0	;
	108	9.477	2.059	9.285	-9.285	1.0098	25.00	1	23.212	0.000	0	0	0	0	0	0	0	0	0	0	0	;
	109	15.000	2.963	7.750	-6.200	1.0207	17.33	1	15.500	7.750	0	0	0	0	0	0	0	0	0	0	0	;
	109	28.000	5.735	15.000	-12.000	1.0207	33.54	1	30.000	15.000	0	0	0	0	0	0	0	0	0	0	0	;
	109	39.539	8.208	24.038	-24.038	1.0207	64.72	1	60.095	0.000	0	0	0	0	0	0	0	0	0	0	0	;
	109	1.666	6.570	19.238	-19.238	1.0207	51.80	1	48.095	0.000	0	0	0	0	0	0	0	0	0	0	0	;
	109	5.952	0.000	0.000	0.000	1.0207	15.70	1	15.700	0.000	0	0	0	0	0	0	0	0	0	0	0	;
	109	0.000	0.000	5.842	-5.842	1.0207	15.73	0	14.606	0.000	0	0	0	0	0	0	0	0	0	0	0	;
	110	11.439	-0.817	6.954	-6.954	1.0280	18.72	1	17.385	0.000	0	0	0	0	0	0	0	0	0	0	0	;
	110	0.000	0.000	4.191	-4.191	1.0280	11.28	0	10.477	0.000	0	0	0	0	0	0	0	0	0	0	0	;
	111	4.291	0.420	2.609	-2.609	1.0260	7.02	1	6.522	0.000	0	0	0	0	0	0	0	0	0	0	0	;
	112	128.119	15.590	77.890	-77.890	1.0269	209.72	1	194.724	0.000	0	0	0	0	0	0	0	0	0	0	0	;
	112	0.000	0.000	15.975	-15.975	1.0269	43.01	0	39.938	0.000	0	0	0	0	0	0	0	0	0	0	0	;
	113	1.176	0.038	0.715	-0.715	1.0281	1.92	1	1.787	0.000	0	0	0	0	0	0	0	0	0	0	0	;
	113	2.540	0.000	0.000	0.000	1.0281	6.70	1	6.700	0.000	0	0	0	0	0	0	0	0	0	0	0	;
	113	0.000	0.000	35.588	-35.588	1.0281	95.82	0	88.971	0.000	0	0	0	0	0	0	0	0	0	0	0	;
	114	17.853	5.056	10.854	-10.854	1.0325	29.22	1	27.134	0.000	0	0	0	0	0	0	0	0	0	0	0	;
	114	4.439	23.877	51.252	-51.252	1.0325	138.00	1	128.130	0.000	0	0	0	0	0	0	0	0	0	0	0	;
	114	5.118	0.000	0.000	0.000	1.0325	13.50	1	13.500	0.000	0	0	0	0	0	0	0	0	0	0	0	;
	114	10.236	4.672	10.028	-10.028	1.0325	27.00	1	25.069	0.000	0	0	0	0	0	0	0	0	0	0	0	;
	114	0.000	0.000	6.023	-6.023	1.0325	16.22	0	15.058	0.000	0	0	0	0	0	0	0	0	0	0	0	;
	115	16.000	0.720	9.000	-7.200	1.0183	20.12	1	18.000	-18.000	0	0	0	0	0	0	0	0	0	0	0	;
	115	16.000	0.720	9.000	-7.200	1.0183	20.12	1	18.000	-18.000	0	0	0	0	0	0	0	0	0	0	0	;
	115	1.420	0.005	0.863	-0.863	1.0183	2.32	1	2.158	0.000	0	0	0	0	0	0	0	0	0	0	0	;
	115	0.614	0.040	7.094	-7.094	1.0183	19.10	1	17.734	0.000	0	0	0	0	0	0	0	0	0	0	0	;
	115	3.867	0.000	0.000	0.000	1.0183	10.20	1	10.200	0.000	0	0	0	0	0	0	0	0	0	0	0	;
	116	42.716	15.026	25.969	-25.969	1.0198	69.92	1	64.923	0.000	0	0	0	0	0	0	0	0	0	0	0	;
	116	0.682	0.000	0.000	0.000	1.0198	1.80	1	1.800	0.000	0	0	0	0	0	0	0	0	0	0	0	;
	116	0.000	0.000	5.073	-5.073	1.0198	13.66	0	12.683	0.000	0	0	0	0	0	0	0	0	0	0	0	;
	117	0.809	-0.042	0.492	-0.492	1.0163	1.32	1	1.230	0.000	0	0	0	0	0	0	0	0	0	0	0	;
	117	0.000	0.000	11.451	-11.451	1.0163	30.83	0	28.629	0.000	0	0	0	0	0	0	0	0	0	0	0	;
	118	24.450	7.169	14.865	-14.865	1.0235	40.02	1	37.162	0.000	0	0	0	0	0	0	0	0	0	0	0	;
	118	0.389	2.167	4.494	-4.494	1.0235	12.10	1	11.235	0.000	0	0	0	0	0	0	0	0	0	0	0	;
	118	9.288	0.000	0.000	0.000	1.0235	24.50	1	24.500	0.000	0	0	0	0	0	0	0	0	0	0	0	;
	118	30.138	14.240	29.526	-29.526	1.0235	79.50	1	73.814	0.000	0	0	0	0	0	0	0	0	0	0	0	;
	119	3.986	0.562	2.423	-2.423	1.0379	6.52	1	6.058	0.000	0	0	0	0	0	0	0	0	0	0	0	;
	119	1.518	4.069	17.530	-17.530	1.0379	47.20	1	43.824	0.000	0	0	0	0	0	0	0	0	0	0	0	;
	119	0.000	0.000	5.073	-5.073	1.0379	13.66	0	12.683	0.000	0	0	0	0	0	0	0	0	0	0	0	;
	120	17.609	6.072	10.705	-10.705	1.0270	28.82	1	26.763	0.000	0	0	0	0	0	0	0	0	0	0	0	;
	120	1.760	11.522	20.315	-20.315	1.0270	54.70	1	50.788	0.000	0	0	0	0	0	0	0	0	0	0	0	;
	120	7.582	0.000	0.000	0.000	1.0270	20.00	1	20.000	0.000	0	0	0	0	0	0	0	0	0	0	0	;
	120	0.000	0.000	6.159	-6.159	1.0270	16.58	0	15.397	0.000	0	0	0	0	0	0	0	0	0	0	0	;
	121	0.557	3.226	6.425	-6.425	1.0203	17.30	1	16.063	0.000	0	0	0	0	0	0	0	0	0	0	0	;
	121	0.379	0.000	0.000	0.000	1.0203	1.00	1	1.000	0.000	0	0	0	0	0	0	0	0	0	0	0	;
	121	0.000	0.000	15.609	-15.609	1.0203	42.03	0	39.022	0.000	0	0	0	0	0	0	0	0	0	0	0	;
	122	13.821	4.789	8.402	-8.402	1.0352	22.62	1	21.006	0.000	0	0	0	0	0	0	0	0	0	0	0	;
	122	4.964	32.662	57.306	-57.306	1.0352	154.30	1	143.264	0.000	0	0	0	0	0	0	0	0	0	0	0	;
	122	0.000	0.000	4.214	-4.214	1.0352	11.35	0	10.535	0.000	0	0	0	0	0	0	0	0	0	0	0	;
	123	27.933	3.447	16.982	-16.982	1.0327	45.72	1	42.454	0.000	0	0	0	0	0	0	0	0	0	0	0	;
	123	0.000	0.000	12.763	-12.763	1.0327	34.37	0	31.908	0.000	0	0	0	0	0	0	0	0	0	0	0	;
	124	0.870	0.340	0.529	-0.529	1.0279	1.42	1	1.322	0.000	0	0	0	0	0	0	0	0	0	0	0	;
	124	7.373	54.710	85.123	-85.123	1.0279	229.20	1	212.807	0.000	0	0	0	0	0	0	0	0	0	0	0	;
	124	0.493	0.000	0.000	0.000	1.0279	1.30	1	1.300	0.000	0	0	0	0	0	0	0	0	0	0	0	;
	125	0.898	0.947	10.362	-10.362	1.0237	27.90	1	25.905	0.000	0	0	0	0	0	0	0	0	0	0	0	;
	126	22.740	-0.574	13.825	-13.825	1.0319	37.22	1	34.562	0.000	0	0	0	0	0	0	0	0	0	0	0	;
	126	1.000	-0.479	11.550	-11.550	1.0319	31.10	1	28.876	0.000	0	0	0	0	0	0	0	0	0	0	0	;
	126	0.000	0.000	14.516	-14.516	1.0319	39.09	0	36.291	0.000	0	0	0	0	0	0	0	0	0	0	0	;
	127	1.359	0.241	0.826	-0.826	1.0306	2.22	1	2.065	0.000	0	0	0	0	0	0	0	0	0	0	0	;
	127	11.246	37.866	129.838	-129.838	1.0306	349.60	1	324.596	0.000	0	0	0	0	0	0	0	0	0	0	0	;
	127	17.400	0.000	0.000	0.000	1.0306	45.90	1	45.900	0.000	0	0	0	0	0	0	0	0	0	0	0	;
	127	11.657	3.330	11.420	-11.420	1.0306	30.75	1	28.551	0.000	0	0	0	0	0	0	0	0	0	0	0	;
	127	0.000	0.000	4.191	-4.191	1.0306	11.28	0	10.477	0.000	0	0	0	0	0	0	0	0	0	0	0	;
	128	99.529	37.154	60.509	-60.509	1.0311	162.92	1	151.271	0.000	0	0	0	0	0	0	0	0	0	0	0	;
	128	0.418	2.965	4.828	-4.828	1.0311	13.00	1	12.070	0.000	0	0	0	0	0	0	0	0	0	0	0	;
	128	17.249	0.000	0.000	0.000	1.0311	45.50	1	45.500	0.000	0	0	0	0	0	0	0	0	0	0	0	;
	128	0.000	0.000	5.345	-5.345	1.0311	14.39	0	13.362	0.000	0	0	0	0	0	0	0	0	0	0	0	;
	129	58.000	20.784	37.500	-30.000	1.0273	83.85	1	75.000	37.500	0	0	0	0	0	0	0	0	0	0	0	;
	129	44.366	14.362	26.972	-26.972	1.0273	72.62	1	67.430	0.000	0	0	0	0	0	0	0	0	0	0	0	;
	129	1.454	8.939	16.787	-16.787	1.0273	45.20	1	41.967	0.000	0	0	0	0	0	0	0	0	0	0	0	;
	129	6.937	0.000	0.000	0.000	1.0273	18.30	1	18.300	0.000	0	0	0	0	0	0	0	0	0	0	0	;
	130	6.063	1.330	3.686	-3.686	1.0166	9.92	1	9.215	0.000	0	0	0	0	0	0	0	0	0	0	0	;
	131	52.368	1.657	31.837	-31.837	1.0288	85.72	1	79.593	0.000	0	0	0	0	0	0	0	0	0	0	0	;
	131	2.239	1.346	25.849	-25.849	1.0288	69.60	1	64.622	0.000	0	0	0	0	0	0	0	0	0	0	0	;
	131	0.000	0.000	12.447	-12.447	1.0288	33.51	0	31.117	0.000	0	0	0	0	0	0	0	0	0	0	0	;
	132	21.091	4.200	12.822	-12.822	1.0124	34.52	1	32.055	0.000	0	0	0	0	0	0	0	0	0	0	0	;
	132	1.039	3.929	11.996	-11.996	1.0124	32.30	1	29.990	0.000	0	0	0	0	0	0	0	0	0	0	0	;
	132	0.000	0.000	4.191	-4.191	1.0124	11.28	0	10.477	0.000	0	0	0	0	0	0	0	0	0	0	0	;
	133	84.562	28.597	51.409	-51.409	1.0287	138.42	1	128.524	0.000	0	0	0	0	0	0	0	0	0	0	0	;
	133	4.391	28.200	50.695	-50.695	1.0287	136.50	1	126.737	0.000	0	0	0	0	0	0	0	0	0	0	0	;
	133	6.331	0.000	0.000	0.000	1.0287	16.70	1	16.700	0.000	0	0	0	0	0	0	0	0	0	0	0	;
	134	114.190	46.798	69.422	-69.422	1.0251	186.92	1	173.555	0.000	0	0	0	0	0	0	0	0	0	0	0	;
	134	0.000	0.000	4.711	-4.711	1.0251	12.69	0	11.779	0.000	0	0	0	0	0	0	0	0	0	0	0	;
	135	0.295	0.098	3.405	-3.405	1.0271	9.17	1	8.511	0.000	0	0	0	0	0	0	0	0	0	0	0	;
	136	4.108	-0.165	2.497	-2.497	1.0321	6.72	1	6.243	0.000	0	0	0	0	0	0	0	0	0	0	0	;
	136	0.000	0.000	5.978	-5.978	1.0321	16.10	0	14.945	0.000	0	0	0	0	0	0	0	0	0	0	0	;
	137	18.036	5.734	10.965	-10.965	1.0286	29.52	1	27.413	0.000	0	0	0	0	0	0	0	0	0	0	0	;
	137	1.737	10.486	20.055	-20.055	1.0286	54.00	1	50.138	0.000	0	0	0	0	0	0	0	0	0	0	0	;
	137	1.858	0.000	0.000	0.000	1.0286	4.90	1	4.900	0.000	0	0	0	0	0	0	0	0	0	0	0	;
	138	4.108	0.485	2.497	-2.497	1.0236	6.72	1	6.243	0.000	0	0	0	0	0	0	0	0	0	0	0	;
	138	2.502	0.000	0.000	0.000	1.0236	6.60	1	6.600	0.000	0	0	0	0	0	0	0	0	0	0	0	;
	138	0.000	0.000	6.792	-6.792	1.0236	18.29	0	16.981	0.000	0	0	0	0	0	0	0	0	0	0	0	;
	139	6.124	0.132	3.723	-3.723	1.0263	10.02	1	9.307	0.000	0	0	0	0	0	0	0	0	0	0	0	;
	139	0.000	0.000	4.191	-4.191	1.0263	11.28	0	10.477	0.000	0	0	0	0	0	0	0	0	0	0	0	;
	140	2.616	0.000	0.000	0.000	1.0186	6.90	1	6.900	0.000	0	0	0	0	0	0	0	0	0	0	0	;
	140	0.000	0.000	49.313	-49.313	1.0186	132.78	0	123.284	0.000	0	0	0	0	0	0	0	0	0	0	0	;
	141	8.262	0.771	5.023	-5.023	1.0248	13.52	1	12.557	0.000	0	0	0	0	0	0	0	0	0	0	0	;
	141	0.000	0.000	4.191	-4.191	1.0248	11.28	0	10.477	0.000	0	0	0	0	0	0	0	0	0	0	0	;
	142	12.233	3.986	7.437	-7.437	1.0277	20.02	1	18.592	0.000	0	0	0	0	0	0	0	0	0	0	0	;
	142	3.953	24.461	45.644	-45.644	1.0277	122.90	1	114.110	0.000	0	0	0	0	0	0	0	0	0	0	0	;
	142	10.463	0.000	0.000	0.000	1.0277	27.60	1	27.600	0.000	0	0	0	0	0	0	0	0	0	0	0	;
	142	0.000	0.000	4.214	-4.214	1.0277	11.35	0	10.535	0.000	0	0	0	0	0	0	0	0	0	0	0	;
	144	1.420	0.256	0.863	-0.863	1.0266	2.32	1	2.158	0.000	0	0	0	0	0	0	0	0	0	0	0	;
	144	3.889	13.325	44.901	-44.901	1.0266	120.90	1	112.253	0.000	0	0	0	0	0	0	0	0	0	0	0	;
	145	247.120	56.350	150.237	-150.237	1.0279	404.52	1	375.591	0.000	0	0	0	0	0	0	0	0	0	0	0	;
	145	0.614	2.661	7.094	-7.094	1.0279	19.10	1	17.734	0.000	0	0	0	0	0	0	0	0	0	0	0	;
	146	0.000	0.000	11.082	-11.082	1.0199	29.84	0	27.706	0.000	0	0	0	0	0	0	0	0	0	0	0	;
	147	3.802	-0.070	2.312	-2.312	1.0259	6.22	1	5.779	0.000	0	0	0	0	0	0	0	0	0	0	0	;
	147	0.000	0.000	5.978	-5.978	1.0259	16.10	0	14.945	0.000	0	0	0	0	0	0	0	0	0	0	0	;
	149	1.481	0.175	0.900	-0.900	1.0233	2.42	1	2.251	0.000	0	0	0	0	0	0	0	0	0	0	0	;
	149	0.000	0.000	10.146	-10.146	1.0233	27.32	0	25.365	0.000	0	0	0	0	0	0	0	0	0	0	0	;
	150	0.000	0.000	4.000	-3.200	1.0154	8.94	0	8.000	4.000	0	0	0	0	0	0	0	0	0	0	0	;
	150	8.000	0.426	4.400	-3.520	1.0154	9.84	1	8.800	4.400	0	0	0	0	0	0	0	0	0	0	0	;
	150	8.000	0.426	4.400	-3.520	1.0154	9.84	1	8.800	4.400	0	0	0	0	0	0	0	0	0	0	0	;
	150	8.000	0.426	4.400	-3.520	1.0154	9.84	1	8.800	4.400	0	0	0	0	0	0	0	0	0	0	0	;
	150	8.000	0.426	4.400	-3.520	1.0154	9.84	1	8.800	4.400	0	0	0	0	0	0	0	0	0	0	0	;
	150	0.000	0.000	4.000	-3.200	1.0154	8.94	0	8.000	4.000	0	0	0	0	0	0	0	0	0	0	0	;
	150	0.000	0.000	12.500	-10.000	1.0154	27.95	0	25.000	12.500	0	0	0	0	0	0	0	0	0	0	0	;
	150	32.942	0.483	20.027	-20.027	1.0154	53.92	1	50.067	0.000	0	0	0	0	0	0	0	0	0	0	0	;
	150	2.319	0.646	26.777	-26.777	1.0154	72.10	1	66.943	0.000	0	0	0	0	0	0	0	0	0	0	0	;
	150	2.123	0.000	0.000	0.000	1.0154	5.60	1	5.600	0.000	0	0	0	0	0	0	0	0	0	0	0	;
	150	0.000	0.000	15.025	-15.025	1.0154	40.46	0	37.563	0.000	0	0	0	0	0	0	0	0	0	0	0	;
	151	17.303	5.831	10.519	-10.519	1.0237	28.32	1	26.298	0.000	0	0	0	0	0	0	0	0	0	0	0	;
	151	4.246	0.000	0.000	0.000	1.0237	11.20	1	11.200	0.000	0	0	0	0	0	0	0	0	0	0	0	;
	151	0.000	0.000	4.191	-4.191	1.0237	11.28	0	10.477	0.000	0	0	0	0	0	0	0	0	0	0	0	;
	152	16.387	0.616	9.962	-9.962	1.0208	26.82	1	24.906	0.000	0	0	0	0	0	0	0	0	0	0	0	;
	152	3.468	2.476	40.036	-40.036	1.0208	107.80	1	100.090	0.000	0	0	0	0	0	0	0	0	0	0	0	;
	152	10.160	0.000	0.000	0.000	1.0208	26.80	1	26.800	0.000	0	0	0	0	0	0	0	0	0	0	0	;
	152	12.510	0.758	12.256	-12.256	1.0208	33.00	1	30.640	0.000	0	0	0	0	0	0	0	0	0	0	0	;
	152	0.000	0.000	4.214	-4.214	1.0208	11.35	0	10.535	0.000	0	0	0	0	0	0	0	0	0	0	0	;
	153	0.486	0.563	5.608	-5.608	1.0278	15.10	1	14.020	0.000	0	0	0	0	0	0	0	0	0	0	0	;
	153	0.000	0.000	4.214	-4.214	1.0278	11.35	0	10.535	0.000	0	0	0	0	0	0	0	0	0	0	0	;
	154	3.314	0.114	2.015	-2.015	1.0213	5.42	1	5.036	0.000	0	0	0	0	0	0	0	0	0	0	0	;
	154	0.000	0.000	4.938	-4.938	1.0213	13.29	0	12.344	0.000	0	0	0	0	0	0	0	0	0	0	0	;
	155	0.000	0.000	20.000	-16.000	1.0327	44.72	0	40.000	20.000	0	0	0	0	0	0	0	0	0	0	0	;
	155	0.992	0.278	0.603	-0.603	1.0327	1.62	1	1.508	0.000	0	0	0	0	0	0	0	0	0	0	0	;
	155	8.650	46.038	99.867	-99.867	1.0327	268.90	1	249.668	0.000	0	0	0	0	0	0	0	0	0	0	0	;
	155	7.658	0.000	0.000	0.000	1.0327	20.20	1	20.200	0.000	0	0	0	0	0	0	0	0	0	0	0	;
	156	7.772	23.039	89.728	-89.728	1.0282	241.60	1	224.320	0.000	0	0	0	0	0	0	0	0	0	0	0	;
	156	3.677	0.000	0.000	0.000	1.0282	9.70	1	9.700	0.000	0	0	0	0	0	0	0	0	0	0	0	;
	157	11.683	2.694	7.103	-7.103	1.0208	19.12	1	17.757	0.000	0	0	0	0	0	0	0	0	0	0	0	;
	158	2.520	0.790	1.532	-1.532	1.0282	4.12	1	3.829	0.000	0	0	0	0	0	0	0	0	0	0	0	;
	158	2.361	14.050	27.260	-27.260	1.0282	73.40	1	68.150	0.000	0	0	0	0	0	0	0	0	0	0	0	;
	158	0.000	0.000	4.191	-4.191	1.0282	11.28	0	10.477	0.000	0	0	0	0	0	0	0	0	0	0	0	;
	159	5.146	2.079	3.129	-3.129	1.0320	8.42	1	7.822	0.000	0	0	0	0	0	0	0	0	0	0	0	;
	159	5.739	44.011	66.256	-66.256	1.0320	178.40	1	165.640	0.000	0	0	0	0	0	0	0	0	0	0	0	;
	159	1.024	0.000	0.000	0.000	1.0320	2.70	1	2.700	0.000	0	0	0	0	0	0	0	0	0	0	0	;
	159	0.000	0.000	3.434	-3.434	1.0320	9.25	0	8.585	0.000	0	0	0	0	0	0	0	0	0	0	0	;
	160	16.875	3.986	10.259	-10.259	1.0358	27.62	1	25.649	0.000	0	0	0	0	0	0	0	0	0	0	0	;
	160	6.549	29.374	75.615	-75.615	1.0358	203.60	1	189.038	0.000	0	0	0	0	0	0	0	0	0	0	0	;
	160	20.964	0.000	0.000	0.000	1.0358	55.30	1	55.300	0.000	0	0	0	0	0	0	0	0	0	0	0	;
	161	7.540	22.380	87.054	-87.054	1.0243	234.40	1	217.635	0.000	0	0	0	0	0	0	0	0	0	0	0	;
	162	36.668	8.692	22.292	-22.292	1.0159	60.02	1	55.731	0.000	0	0	0	0	0	0	0	0	0	0	0	;
	162	1.708	7.690	19.721	-19.721	1.0159	53.10	1	49.302	0.000	0	0	0	0	0	0	0	0	0	0	0	;
	162	1.213	0.000	0.000	0.000	1.0159	3.20	1	3.200	0.000	0	0	0	0	0	0	0	0	0	0	0	;
	163	7.289	9.891	84.157	-84.157	1.0279	226.60	1	210.393	0.000	0	0	0	0	0	0	0	0	0	0	0	;
	163	2.730	0.000	0.000	0.000	1.0279	7.20	1	7.200	0.000	0	0	0	0	0	0	0	0	0	0	0	;
	164	5.118	0.000	0.000	0.000	1.0264	13.50	1	13.500	0.000	0	0	0	0	0	0	0	0	0	0	0	;
	164	0.000	0.000	35.901	-35.901	1.0264	96.67	0	89.751	0.000	0	0	0	0	0	0	0	0	0	0	0	;
	165	2.747	7.066	31.717	-31.717	1.0078	85.40	1	79.292	0.000	0	0	0	0	0	0	0	0	0	0	0	;
	165	7.999	0.000	0.000	0.000	1.0078	21.10	1	21.100	0.000	0	0	0	0	0	0	0	0	0	0	0	;
	166	12.477	2.707	7.585	-7.585	1.0289	20.42	1	18.964	0.000	0	0	0	0	0	0	0	0	0	0	0	;
	166	7.884	32.480	91.028	-91.028	1.0289	245.10	1	227.570	0.000	0	0	0	0	0	0	0	0	0	0	0	;
	166	0.000	0.000	4.259	-4.259	1.0289	11.47	0	10.648	0.000	0	0	0	0	0	0	0	0	0	0	0	;
	167	1.359	-0.023	0.826	-0.826	1.0087	2.22	1	2.065	0.000	0	0	0	0	0	0	0	0	0	0	0	;
	167	4.092	-1.315	47.241	-47.241	1.0087	127.20	1	118.102	0.000	0	0	0	0	0	0	0	0	0	0	0	;
	167	14.140	0.000	0.000	0.000	1.0087	37.30	1	37.300	0.000	0	0	0	0	0	0	0	0	0	0	0	;
	168	3.619	0.151	2.200	-2.200	1.0281	5.92	1	5.501	0.000	0	0	0	0	0	0	0	0	0	0	0	;
	168	0.000	0.000	4.191	-4.191	1.0281	11.28	0	10.477	0.000	0	0	0	0	0	0	0	0	0	0	0	;
	169	5.256	39.303	60.685	-60.685	1.0271	163.40	1	151.713	0.000	0	0	0	0	0	0	0	0	0	0	0	;
	169	0.000	0.000	5.151	-5.151	1.0271	13.87	0	12.877	0.000	0	0	0	0	0	0	0	0	0	0	0	;
	170	3.345	22.022	38.625	-38.625	1.0220	104.00	1	96.562	0.000	0	0	0	0	0	0	0	0	0	0	0	;
	170	1.516	0.000	0.000	0.000	1.0220	4.00	1	4.000	0.000	0	0	0	0	0	0	0	0	0	0	0	;
	171	0.402	0.000	0.000	0.000	1.0259	1.06	1	1.060	0.000	0	0	0	0	0	0	0	0	0	0	0	;
	171	0.000	0.000	9.597	-9.597	1.0259	25.84	0	23.992	0.000	0	0	0	0	0	0	0	0	0	0	0	;
	172	2.072	3.099	23.918	-23.918	1.0075	64.40	1	59.794	0.000	0	0	0	0	0	0	0	0	0	0	0	;
...
];

%% gen tags 
% Generation Technology Type:
%  CWS (Connection with Spain),
%  FOG (Fossil Gas),
%  FHC (Fossil Hard Coal),
%  HWR (Hydro Water Reservoir),
%  HPS (Hydro Pumped Storage),
%  HRP (Hydro Run-of-river and poundage),
%  SH1 (Small Hydro - P ≤ 10 MW),
%  SH3 (Small Hydro - 10 MW < P ≤ 30 MW),
%  PVP (Photovoltaic power plant),
%  WON (Wind onshore),
%  WOF (Wind offshore),
%  MAR (Marine),
%  OTH (Other thermal, such as geothermal, biomass, biogas, Municipal solid waste and CHP renewable and non-renewable)
%	genType
mpc.gen_tags = {
	'CWS';	'CWS';	'CWS';	'CWS';	'CWS';	'CWS';	'CWS';	'CWS';	'PVP';	'PVP';	'PVP';	'PVP';	'PVP';	'PVP';	'HWR';	'HWR';	'PVP';	'HRP';	'HRP';	'HRP';	'PVP';	'WON';	'WON';	'PVP';	'PVP';	'WON';	'SH3';	'HRP';	'HRP';	'OTH';	'WON';	'SH1';	'PVP';	'OTH';	'PVP';	'OTH';	'OTH';	'PVP';	'OTH';	'SH1';	'PVP';	'OTH';	'WON';	'SH1';	'SH3';	'PVP';	'HPS';	'HPS';	'OTH';	'WON';	'SH1';	'OTH';	'SH1';	'PVP';	'OTH';	'PVP';	'OTH';	'WON';	'SH1';	'SH3';	'OTH';	'WON';	'PVP';	'OTH';	'WON';	'SH1';	'PVP';	'WON';	'SH1';	'PVP';	'OTH';	'WON';	'PVP';	'OTH';	'PVP';	'OTH';	'WON';	'SH1';	'WON';	'OTH';	'WON';	'PVP';	'OTH';	'WON';	'SH1';	'SH3';	'PVP';	'OTH';	'WON';	'SH1';	'PVP';	'HWR';	'OTH';	'WON';	'SH1';	'OTH';	'OTH';	'WON';	'PVP';	'OTH';	'WON';	'PVP';	'OTH';	'WON';	'SH1';	'OTH';	'PVP';	'WON';	'OTH';	'PVP';	'OTH';	'WON';	'SH1';	'OTH';	'SH1';	'PVP';	'OTH';	'PVP';	'SH1';	'PVP';	'OTH';	'PVP';	'OTH';	'WON';	'SH1';	'PVP';	'OTH';	'WON';	'OTH';	'WON';	'PVP';	'OTH';	'PVP';	'OTH';	'PVP';	'HWR';	'HRP';	'HRP';	'HRP';	'HRP';	'HWR';	'HWR';	'OTH';	'WON';	'SH1';	'PVP';	'OTH';	'SH1';	'PVP';	'OTH';	'WON';	'SH1';	'SH3';	'PVP';	'WON';	'PVP';	'OTH';	'PVP';	'HWR';	'OTH';	'WON';	'SH1';	'WON';	'SH1';	'OTH';	'OTH';	'WON';	'PVP';	'OTH';	'WON';	'SH1';	'PVP';	'OTH';	'WON';	'SH1';	'WON';	'OTH';	'WON';	'SH1';	'WON';	'SH1';	'SH1';	'PVP';	'WON';	'SH1';	'OTH';	'WON';	'PVP';	'OTH';	'WON';	'SH1';	'OTH';	'PVP';	'WON';	'PVP';	'WON';	'SH1';	'SH1';	'PVP';	'WON';	'SH1';	'HWR';	'HWR';	'HWR';	'HWR';	'HWR';	'HWR';	'HWR';	'HWR';	'HWR';	'HWR';	'HPS';	'HPS';	'HWR';	'HWR';	'HWR';	'HPS';	'HRP';	'HRP';	'HRP';	'HPS';	'HPS';	'HWR';	'HWR';	'HWR';	'HRP';	'HRP';	'HRP';	'HRP';	'HRP';	'HRP';	'HRP';	'HRP';	'HRP';	'HRP';	'HPS';	'HPS';	'HPS';	'HRP';	'HRP';	'HRP';	'HPS';	'HPS';	'HRP';	'HRP';	'HRP';	'HRP';	'HRP';	'HRP';	'HRP';	'HRP';	'HRP';	'FOG';	'HRP';	'HPS';	'HPS';	'HPS';	'HPS';	'HPS';	'HPS';	'HPS';	'HPS';	'HPS';	'HWR';	'HWR';	'FOG';	'FOG';	'FOG';	'FOG';	'FOG';	'FOG';	'OTH';	'WON';	'WON';	'WON';	'WON';	'OTH';	'WON';	'WON';	'WON';	'WON';	'WON';	'WON';	'WON';	'HRP';	'HRP';	'HRP';	'WOF';	'MAR';	'PVP';	'HPS';	'HPS';	'PVP';	'PVP';	'PVP';	'PVP';	'HWR';	'HWR';	'HPS';	'HPS';	'HPS';	'HPS';	'HWR';	'HWR';	'WON';	'PVP';	'PVP';
};

%% branch data
% If the 'step_size', 'actTap', 'minTap', 'maxTap' and 'normalTap' fields are equal to "-1", it means that the transformer does not have tap changing capability
% If the length is equal to "0", it means that the correspondent branch represents a transformer
%	fbus	tbus	r	x	b	rateA (summer)	rateB (spring)	rateC (winter)	tap ratio	shift angle		status	angmin	angmax	step_size	actTap	minTap	maxTap	normalTap	length (km)
mpc.branch = [
	8	24	0.02945	0.09879	0.03302	91	123	130	0	0	0	-360	360	0	0	0	0	0	54.0	;
	8	176	0.02007	0.06867	0.02205	96	104	104	0	0	1	-360	360	0	0	0	0	0	36.6	;
	8	176	0.02014	0.06872	0.02229	96	104	104	0	0	1	-360	360	0	0	0	0	0	36.7	;
	9	14	0.00146	0.00787	0.00265	255	260	260	0	0	1	-360	360	0	0	0	0	0	4.3	;
	9	14	0.00146	0.00769	0.00260	255	260	260	0	0	1	-360	360	0	0	0	0	0	4.2	;
	9	14	0.00137	0.00737	0.00250	124	162	203	0	0	1	-360	360	0	0	0	0	0	4.1	;
	10	19	0.02098	0.11168	0.03801	218	248	260	0	0	1	-360	360	0	0	0	0	0	61.3	;
	10	22	0.02445	0.08166	0.02747	164	186	206	0	0	1	-360	360	0	0	0	0	0	44.5	;
	10	26	0.00777	0.04761	0.01640	260	260	260	0	0	1	-360	360	0	0	0	0	0	26.0	;
	11	14	0.02030	0.07019	0.02214	171	186	206	0	0	1	-360	360	0	0	0	0	0	36.7	;
	11	14	0.02010	0.06862	0.02204	191	204	222	0	0	1	-360	360	0	0	0	0	0	36.5	;
	12	22	0.02823	0.10553	0.04049	189	204	222	0	0	1	-360	360	0	0	0	0	0	61.6	;
	12	23	0.01953	0.08771	0.03214	195	204	222	0	0	1	-360	360	0	0	0	0	0	49.8	;
	12	29	0.01515	0.04945	0.01745	195	204	222	0	0	1	-360	360	0	0	0	0	0	27.9	;
	12	29	0.01515	0.04945	0.01745	195	204	222	0	0	1	-360	360	0	0	0	0	0	27.9	;
	12	29	0.00551	0.05765	0.03609	260	260	260	0	0	1	-360	360	0	0	0	0	0	42.8	;
	12	34	0.02334	0.12013	0.04435	255	260	260	0	0	1	-360	360	0	0	0	0	0	68.7	;
	13	14	0.00788	0.04049	0.01506	255	260	260	0	0	1	-360	360	0	0	0	0	0	23.1	;
	13	14	0.00788	0.04049	0.01506	255	260	260	0	0	1	-360	360	0	0	0	0	0	23.1	;
	13	20	0.00745	0.02441	0.00855	195	204	221	0	0	1	-360	360	0	0	0	0	0	13.6	;
	13	20	0.00745	0.02441	0.00855	195	204	221	0	0	1	-360	360	0	0	0	0	0	13.6	;
	13	20	0.00745	0.02441	0.00855	195	204	221	0	0	1	-360	360	0	0	0	0	0	13.6	;
	13	20	0.00745	0.02441	0.00855	195	204	221	0	0	1	-360	360	0	0	0	0	0	13.6	;
	13	180	0.00411	0.02110	0.00788	255	260	260	0	0	1	-360	360	0	0	0	0	0	12.0	;
	13	246	0.00422	0.02163	0.00811	260	260	260	0	0	1	-360	360	0	0	0	0	0	12.2	;
	14	180	0.00411	0.02110	0.00788	255	260	260	0	0	1	-360	360	0	0	0	0	0	12.0	;
	14	185	0.01114	0.03788	0.01266	191	204	222	0	0	1	-360	360	0	0	0	0	0	20.5	;
	14	186	0.02662	0.09054	0.02905	185	204	222	0	0	1	-360	360	0	0	0	0	0	48.4	;
	14	246	0.00408	0.02092	0.00779	255	260	260	0	0	1	-360	360	0	0	0	0	0	12.0	;
	15	22	0.02154	0.10932	0.04126	224	248	260	0	0	1	-360	360	0	0	0	0	0	63.4	;
	15	22	0.02154	0.10932	0.04126	224	248	260	0	0	1	-360	360	0	0	0	0	0	63.4	;
	15	26	0.00974	0.05968	0.02055	260	260	260	0	0	1	-360	360	0	0	0	0	0	32.6	;
	15	27	0.02701	0.09576	0.03037	191	204	222	0	0	1	-360	360	0	0	0	0	0	50.5	;
	15	28	0.03335	0.10915	0.03827	195	204	222	0	0	1	-360	360	0	0	0	0	0	60.7	;
	15	29	0.05251	0.17172	0.06032	195	204	222	0	0	1	-360	360	0	0	0	0	0	95.6	;
	15	250	0.00184	0.00954	0.00342	130	130	130	0	0	1	-360	360	0	0	0	0	0	5.4	;
	15	250	0.00187	0.00974	0.00349	130	130	130	0	0	1	-360	360	0	0	0	0	0	5.5	;
	15	255	0.00282	0.01157	0.02727	260	273	296	0	0	1	-360	360	0	0	0	0	0	5.9	;
	16	178	0.00839	0.03586	0.01167	104	123	130	0	0	1	-360	360	0	0	0	0	0	19.0	;
	17	21	0.01658	0.06789	0.02323	195	204	222	0	0	1	-360	360	0	0	0	0	0	37.9	;
	17	21	0.00900	0.05720	0.02480	260	273	296	0	0	1	-360	360	0	0	0	0	0	35.0	;
	17	25	0.01638	0.06453	0.02191	104	123	153	0	0	1	-360	360	0	0	0	0	0	35.2	;
	17	184	0.01106	0.03018	0.01032	91	108	134	0	0	1	-360	360	0	0	0	0	0	16.6	;
	18	287	0.00156	0.01068	0.00498	260	273	296	0	0	0	-360	360	0	0	0	0	0	6.8	;
	18	288	0.00151	0.01038	0.00484	260	273	296	0	0	1	-360	360	0	0	0	0	0	6.6	;
	18	306	0.00548	0.02813	0.01051	255	260	260	0	0	1	-360	360	0	0	0	0	0	16.0	;
	18	307	0.00480	0.02461	0.00920	255	260	260	0	0	1	-360	360	0	0	0	0	0	14.0	;
	19	186	0.02662	0.09054	0.02905	185	204	222	0	0	1	-360	360	0	0	0	0	0	48.4	;
	21	30	0.01441	0.06067	0.02080	195	204	222	0	0	1	-360	360	0	0	0	0	0	33.3	;
	21	32	0.00720	0.04579	0.01985	260	273	296	0	0	1	-360	360	0	0	0	0	0	28.0	;
	21	32	0.00720	0.04579	0.01985	260	273	296	0	0	1	-360	360	0	0	0	0	0	28.0	;
	21	251	0.00610	0.04180	0.01950	260	273	296	0	0	1	-360	360	0	0	0	0	0	26.5	;
	22	34	0.01325	0.06238	0.06238	337	372	411	0	0	1	-360	360	0	0	0	0	0	57.9	;
	22	245	0.01212	0.04116	0.01324	81	123	130	0	0	1	-360	360	0	0	0	0	0	22.0	;
	23	34	0.01185	0.06135	0.02247	255	260	260	0	0	1	-360	360	0	0	0	0	0	35.1	;
	23	34	0.01185	0.06135	0.02247	255	260	260	0	0	1	-360	360	0	0	0	0	0	35.1	;
	23	34	0.01580	0.07475	0.02730	255	260	260	0	0	1	-360	360	0	0	0	0	0	42.7	;
	24	31	0.00310	0.03271	0.07540	520	520	520	0	0	1	-360	360	0	0	0	0	0	46.5	;
	24	181	0.00436	0.01464	0.00484	189	195	195	0	0	1	-360	360	0	0	0	0	0	7.8	;
	24	248	0.00715	0.03705	0.01350	227	248	381	0	0	1	-360	360	0	0	0	0	0	20.8	;
	24	248	0.00715	0.03705	0.01350	227	248	381	0	0	1	-360	360	0	0	0	0	0	20.8	;
	24	252	0.01240	0.06509	0.02314	253	260	260	0	0	1	-360	360	0	0	0	0	0	36.3	;
	25	32	0.01065	0.03476	0.01219	195	204	222	0	0	1	-360	360	0	0	0	0	0	19.3	;
	25	32	0.01069	0.03488	0.01223	195	204	222	0	0	1	-360	360	0	0	0	0	0	19.3	;
	25	32	0.00504	0.02690	0.01516	233	248	260	0	0	1	-360	360	0	0	0	0	0	18.0	;
	25	307	0.00582	0.01853	0.00675	104	123	153	0	0	1	-360	360	0	0	0	0	0	10.6	;
	25	307	0.00581	0.01846	0.00677	104	123	153	0	0	1	-360	360	0	0	0	0	0	10.6	;
	27	185	0.01114	0.03788	0.01266	191	204	222	0	0	1	-360	360	0	0	0	0	0	20.5	;
	28	29	0.01921	0.06275	0.02210	195	204	222	0	0	1	-360	360	0	0	0	0	0	35.2	;
	30	32	0.00729	0.02383	0.00834	195	204	222	0	0	1	-360	360	0	0	0	0	0	13.2	;
	30	32	0.00729	0.02383	0.00834	195	204	222	0	0	1	-360	360	0	0	0	0	0	13.2	;
	30	32	0.00732	0.02829	0.00946	195	204	222	0	0	1	-360	360	0	0	0	0	0	15.4	;
	30	33	0.00260	0.02724	0.01640	520	520	520	0	0	1	-360	360	0	0	0	0	0	19.8	;
	30	174	0.00358	0.02407	0.00900	260	260	260	0	0	1	-360	360	0	0	0	0	0	13.8	;
	30	179	0.00403	0.01370	0.00440	104	123	153	0	0	1	-360	360	0	0	0	0	0	7.3	;
	30	184	0.01106	0.03018	0.01032	91	108	134	0	0	1	-360	360	0	0	0	0	0	16.6	;
	31	248	0.00715	0.03705	0.01350	227	248	381	0	0	1	-360	360	0	0	0	0	0	20.8	;
	31	248	0.00715	0.03705	0.01350	227	248	381	0	0	1	-360	360	0	0	0	0	0	20.8	;
	31	253	0.01091	0.05722	0.02036	253	260	260	0	0	1	-360	360	0	0	0	0	0	31.9	;
	32	33	0.00695	0.04818	0.02461	504	520	520	0	0	1	-360	360	0	0	0	0	0	32.2	;
	32	254	0.01869	0.10188	0.03320	260	273	296	0	0	1	-360	360	0	0	0	0	0	53.5	;
	32	254	0.01869	0.10188	0.03320	260	273	296	0	0	1	-360	360	0	0	0	0	0	53.5	;
	32	306	0.01351	0.04810	0.01561	195	204	222	0	0	1	-360	360	0	0	0	0	0	25.7	;
	33	173	0.00082	0.00526	0.00200	306	321	348	0	0	1	-360	360	0	0	0	0	0	3.0	;
	33	177	0.00830	0.02880	0.00938	104	104	104	0	0	1	-360	360	0	0	0	0	0	15.3	;
	33	182	0.00023	0.00161	0.00056	306	321	348	0	0	1	-360	360	0	0	0	0	0	0.9	;
	33	184	0.00504	0.03382	0.01267	274	291	322	0	0	1	-360	360	0	0	0	0	0	19.3	;
	36	64	0.00418	0.02292	0.13770	999	1092	1206	0	0	1	-360	360	0	0	0	0	0	52.3	;
	36	71	0.00396	0.02133	0.13035	999	1092	1206	0	0	1	-360	360	0	0	0	0	0	48.9	;
	36	187	0.00011	0.00060	0.00094	191	191	191	0	0	1	-360	360	0	0	0	0	0	0.7	;
	36	188	0.00018	0.00061	0.00092	191	191	191	0	0	1	-360	360	0	0	0	0	0	0.7	;
	36	189	0.00018	0.00061	0.00092	191	191	191	0	0	1	-360	360	0	0	0	0	0	0.8	;
	37	59	0.00168	0.00382	0.35975	493	493	493	0	0	1	-360	360	0	0	0	0	0	10.4	;
	37	213	0.00017	0.00044	0.04927	322	322	322	0	0	1	-360	360	0	0	0	0	0	1.8	;
	37	214	0.00017	0.00044	0.04927	322	322	322	0	0	1	-360	360	0	0	0	0	0	1.8	;
	37	215	0.00017	0.00044	0.04927	322	322	322	0	0	1	-360	360	0	0	0	0	0	1.8	;
	37	216	0.00017	0.00044	0.04927	322	322	322	0	0	1	-360	360	0	0	0	0	0	1.8	;
	38	208	0.00048	0.00109	0.10268	493	493	493	0	0	1	-360	360	0	0	0	0	0	3.2	;
	38	209	0.00048	0.00108	0.10056	493	493	493	0	0	1	-360	360	0	0	0	0	0	3.2	;
	39	45	0.01696	0.09185	0.14133	381	381	381	0	0	1	-360	360	0	0	0	0	0	106.8	;
	39	69	0.00691	0.03721	0.05799	513	546	571.5	0	0	1	-360	360	0	0	0	0	0	43.0	;
	39	69	0.00687	0.03725	0.05671	381	381	381	0	0	1	-360	360	0	0	0	0	0	43.0	;
	39	71	0.00183	0.01006	0.05957	1026	1090.5	1143	0	0	1	-360	360	0	0	0	0	0	22.2	;
	39	78	0.00658	0.03647	0.05332	382	400	435	0	0	1	-360	360	0	0	0	0	0	41.1	;
	39	195	0.00484	0.02634	0.04046	199	237	297	0	0	1	-360	360	0	0	0	0	0	30.4	;
	39	199	0.00873	0.04861	0.07070	381	381	381	0	0	1	-360	360	0	0	0	0	0	54.7	;
	39	258	0.00326	0.01810	0.02629	382	400	435	0	0	1	-360	360	0	0	0	0	0	20.3	;
	39	258	0.00240	0.01307	0.02007	199	237	297	0	0	1	-360	360	0	0	0	0	0	15.1	;
	40	51	0.00874	0.04843	0.07272	374	400	435	0	0	1	-360	360	0	0	0	0	0	54.7	;
	40	65	0.00985	0.05518	0.07982	499.5	546	571.5	0	0	1	-360	360	0	0	0	0	0	61.9	;
	40	65	0.00944	0.05439	0.07975	499.5	546	571.5	0	0	1	-360	360	0	0	0	0	0	61.8	;
	40	196	0.00017	0.00091	0.00135	182	237	297	0	0	1	-360	360	0	0	0	0	0	1.0	;
	40	198	0.00214	0.01565	0.02877	439	471	511	0	0	1	-360	360	0	0	0	0	0	19.6	;
	40	5	0.00630	0.03584	0.05497	374	400	435	0	0	1	-360	360	0	0	0	0	0	41.1	;
	40	5	0.00636	0.03628	0.05564	374	400	435	0	0	1	-360	360	0	0	0	0	0	41.4	;
	40	6	0.00481	0.02670	0.03939	360	390	430	0	0	1	-360	360	0	0	0	0	0	30.2	;
	41	53	0.00145	0.00845	0.01465	381	381	381	0	0	1	-360	360	0	0	0	0	0	10.4	;
	41	53	0.00078	0.00546	0.00902	381	381	381	0	0	1	-360	360	0	0	0	0	0	6.5	;
	41	57	0.00318	0.01660	0.02798	381	381	381	0	0	1	-360	360	0	0	0	0	0	20.2	;
	41	68	0.00084	0.00572	0.00995	401	426	472	0	0	1	-360	360	0	0	0	0	0	7.0	;
	41	68	0.00170	0.00386	0.36133	493	493	493	0	0	1	-360	360	0	0	0	0	0	10.7	;
	41	210	0.00056	0.00586	0.01715	762	762	762	0	0	1	-360	360	0	0	0	0	0	9.4	;
	41	211	0.00221	0.02313	0.06702	762	762	762	0	0	1	-360	360	0	0	0	0	0	37.0	;
	41	308	0.00006	0.00025	0.01708	240	240	240	0	0	1	-360	360	0	0	0	0	0	0.7	;
	42	78	0.00448	0.02493	0.03617	382	400	435	0	0	1	-360	360	0	0	0	0	0	28.0	;
	42	78	0.00448	0.02494	0.03619	382	400	435	0	0	1	-360	360	0	0	0	0	0	28.0	;
	42	257	0.00276	0.01543	0.02230	381	381	381	0	0	1	-360	360	0	0	0	0	0	17.3	;
	42	257	0.00274	0.01524	0.02237	381	381	381	0	0	1	-360	360	0	0	0	0	0	17.3	;
	43	58	0.00210	0.00476	0.44633	493	493	493	0	0	1	-360	360	0	0	0	0	0	12.6	;
	43	76	0.00113	0.00321	0.34652	446	446	446	0	0	1	-360	360	0	0	0	0	0	11.1	;
	43	76	0.00113	0.00320	0.34511	446	446	446	0	0	1	-360	360	0	0	0	0	0	11.1	;
	43	204	0.00146	0.00771	0.01235	381	381	381	0	0	1	-360	360	0	0	0	0	0	9.2	;
	43	205	0.00063	0.00332	0.00533	381	381	381	0	0	1	-360	360	0	0	0	0	0	3.9	;
	43	219	0.00083	0.00445	0.00676	342	364	381	0	0	1	-360	360	0	0	0	0	0	5.4	;
	44	48	0.00396	0.02139	0.03311	342	364	381	0	0	1	-360	360	0	0	0	0	0	24.9	;
	44	66	0.00779	0.04029	0.06834	381	381	381	0	0	1	-360	360	0	0	0	0	0	50.9	;
	44	66	0.00311	0.03080	0.09461	897	941	1021	0	0	1	-360	360	0	0	0	0	0	50.7	;
	44	193	0.00504	0.02686	0.04234	381	381	381	0	0	1	-360	360	0	0	0	0	0	31.7	;
	45	46	0.00650	0.03510	0.05270	382	400	435	0	0	1	-360	360	0	0	0	0	0	40.2	;
	45	46	0.00608	0.03139	0.05420	382	400	435	0	0	1	-360	360	0	0	0	0	0	38.8	;
	45	46	0.00614	0.03155	0.05417	382	400	435	0	0	1	-360	360	0	0	0	0	0	38.8	;
	45	74	0.00586	0.03263	0.04775	381	381	381	0	0	1	-360	360	0	0	0	0	0	36.7	;
	45	74	0.00586	0.03263	0.04775	381	381	381	0	0	1	-360	360	0	0	0	0	0	36.7	;
	45	199	0.00873	0.04861	0.07070	381	381	381	0	0	1	-360	360	0	0	0	0	0	54.7	;
	46	50	0.00409	0.02221	0.03328	381	400	435	0	0	1	-360	360	0	0	0	0	0	25.4	;
	46	64	0.00275	0.01510	0.09065	666	728	804	0	0	1	-360	360	0	0	0	0	0	34.8	;
	46	214	0.00477	0.02559	0.04001	381	381	381	0	0	1	-360	360	0	0	0	0	0	30.0	;
	46	216	0.00465	0.02524	0.03797	382	400	435	0	0	1	-360	360	0	0	0	0	0	28.9	;
	46	222	0.00006	0.00021	0.02068	438	438	438	0	0	1	-360	360	0	0	0	0	0	0.8	;
	46	260	0.00913	0.04888	0.07531	342	364	381	0	0	1	-360	360	0	0	0	0	0	56.8	;
	47	57	0.01028	0.05388	0.08954	381	381	381	0	0	1	-360	360	0	0	0	0	0	65.0	;
	47	61	0.00034	0.00182	0.00285	199	237	297	0	0	1	-360	360	0	0	0	0	0	2.1	;
	47	66	0.00525	0.02886	0.04430	381	381	381	0	0	1	-360	360	0	0	0	0	0	33.4	;
	47	67	0.00789	0.04153	0.06856	381	381	381	0	0	1	-360	360	0	0	0	0	0	50.0	;
	47	75	0.00724	0.03931	0.05957	382	400	435	0	0	1	-360	360	0	0	0	0	0	45.0	;
	47	211	0.00221	0.02313	0.06702	762	762	762	0	0	1	-360	360	0	0	0	0	0	37.0	;
	47	224	0.00039	0.00426	0.01070	750	762	762	0	0	1	-360	360	0	0	0	0	0	6.4	;
	48	66	0.01101	0.05739	0.09535	381	381	381	0	0	1	-360	360	0	0	0	0	0	69.5	;
	48	69	0.00352	0.01887	0.02971	513	546	571.5	0	0	1	-360	360	0	0	0	0	0	22.6	;
	48	69	0.00350	0.01889	0.02900	381	381	381	0	0	1	-360	360	0	0	0	0	0	22.0	;
	49	57	0.00169	0.00872	0.05960	381	381	381	0	0	1	-360	360	0	0	0	0	0	21.4	;
	49	193	0.00037	0.00490	0.01932	1200	1200	1200	0	0	1	-360	360	0	0	0	0	0	9.2	;
	49	221	0.00055	0.00728	0.02882	762	762	762	0	0	1	-360	360	0	0	0	0	0	13.7	;
	50	55	0.00311	0.01663	0.02615	381	381	381	0	0	1	-360	360	0	0	0	0	0	19.5	;
	50	55	0.00252	0.01377	0.02062	381	381	381	0	0	1	-360	360	0	0	0	0	0	15.8	;
	50	56	0.00162	0.01419	0.06090	762	762	762	0	0	1	-360	360	0	0	0	0	0	27.0	;
	50	204	0.00146	0.00771	0.01235	381	381	381	0	0	1	-360	360	0	0	0	0	0	9.2	;
	50	213	0.00210	0.01087	0.01848	381	381	381	0	0	1	-360	360	0	0	0	0	0	13.3	;
	50	215	0.00316	0.01718	0.02582	382	400	435	0	0	1	-360	360	0	0	0	0	0	19.7	;
	50	217	0.00182	0.00952	0.01558	382	400	435	0	0	1	-360	360	0	0	0	0	0	11.3	;
	51	66	0.00711	0.03753	0.06399	382	400	435	0	0	1	-360	360	0	0	0	0	0	45.9	;
	51	66	0.00712	0.03759	0.06408	382	400	435	0	0	1	-360	360	0	0	0	0	0	46.0	;
	51	194	0.00465	0.02422	0.04046	382	400	435	0	0	1	-360	360	0	0	0	0	0	29.4	;
	51	194	0.00466	0.02427	0.04055	382	400	435	0	0	1	-360	360	0	0	0	0	0	29.5	;
	51	224	0.00039	0.00426	0.01070	750	762	762	0	0	0	-360	360	0	0	0	0	0	6.4	;
	52	199	0.00057	0.00311	0.00469	191	191	191	0	0	1	-360	360	0	0	0	0	0	3.6	;
	53	68	0.00078	0.00545	0.00900	401	426	472	0	0	1	-360	360	0	0	0	0	0	6.6	;
	53	190	0.00222	0.01196	0.02035	381	381	381	0	0	1	-360	360	0	0	0	0	0	14.7	;
	54	63	0.00412	0.02158	0.03520	374	381	381	0	0	1	-360	360	0	0	0	0	0	25.7	;
	54	77	0.00631	0.03514	0.05182	374	400	435	0	0	1	-360	360	0	0	0	0	0	39.5	;
	54	77	0.00636	0.03898	0.06249	374	400	435	0	0	1	-360	360	0	0	0	0	0	46.1	;
	54	191	0.00237	0.01312	0.01925	182	229	229	0	0	1	-360	360	0	0	0	0	0	14.9	;
	54	191	0.00189	0.01296	0.02104	229	229	229	0	0	1	-360	360	0	0	0	0	0	15.5	;
	54	192	0.00309	0.01722	0.02516	374	400	435	0	0	1	-360	360	0	0	0	0	0	19.4	;
	54	200	0.00006	0.00035	0.00053	182	237	297	0	0	1	-360	360	0	0	0	0	0	0.4	;
	54	201	0.00006	0.00035	0.00053	182	237	297	0	0	1	-360	360	0	0	0	0	0	0.4	;
	54	202	0.00006	0.00035	0.00053	182	237	297	0	0	1	-360	360	0	0	0	0	0	0.4	;
	54	203	0.00005	0.00034	0.00053	182	237	297	0	0	1	-360	360	0	0	0	0	0	0.2	;
	55	58	0.00049	0.00177	0.22418	364	364	364	0	0	1	-360	360	0	0	0	0	0	7.8	;
	55	204	0.00041	0.00224	0.00340	381	381	381	0	0	1	-360	360	0	0	0	0	0	2.6	;
	55	205	0.00063	0.00332	0.00533	381	381	381	0	0	1	-360	360	0	0	0	0	0	3.9	;
	56	74	0.00719	0.04008	0.05857	382	400	435	0	0	1	-360	360	0	0	0	0	0	46.0	;
	56	205	0.00144	0.00779	0.01170	382	400	435	0	0	1	-360	360	0	0	0	0	0	8.9	;
	57	60	0.00351	0.01764	0.02842	381	381	381	0	0	1	-360	360	0	0	0	0	0	20.8	;
	57	67	0.00249	0.01299	0.02177	381	381	381	0	0	1	-360	360	0	0	0	0	0	15.7	;
	57	190	0.00222	0.01196	0.02035	381	381	381	0	0	1	-360	360	0	0	0	0	0	14.7	;
	57	210	0.00056	0.00586	0.01715	762	762	762	0	0	1	-360	360	0	0	0	0	0	9.4	;
	57	220	0.00042	0.00563	0.02152	1200	1200	1200	0	0	1	-360	360	0	0	0	0	0	10.4	;
	57	221	0.00055	0.00728	0.02882	762	762	762	0	0	1	-360	360	0	0	0	0	0	13.7	;
	58	219	0.00038	0.00138	0.17477	364	364	364	0	0	1	-360	360	0	0	0	0	0	6.2	;
...
];
